/*--------------------------------*- C++ -*----------------------------------*\
  =========                 |
  \\      /  F ield         | OpenFOAM: The Open Source CFD Toolbox
   \\    /   O peration     | Website:  https://openfoam.org
    \\  /    A nd           | Version:  8
     \\/     M anipulation  |
\*---------------------------------------------------------------------------*/
/*   Windows 32 and 64 bit porting by blueCAPE: http://www.bluecape.com.pt   *\
|  Based on Windows porting (2.0.x v4) by Symscape: http://www.symscape.com   |
\*---------------------------------------------------------------------------*/
FoamFile
{
    version     2.0;
    format      ascii;
    class       volScalarField;
    location    "0";
    object      omega;
}
// * * * * * * * * * * * * * * * * * * * * * * * * * * * * * * * * * * * * * //

dimensions      [0 0 -1 0 0 0 0];

#include        "include/initialConditions"

internalField   uniform $omegaInlet;

boundaryField
{
    buildings
    {
        type            zeroGradient;
    }
    upstream1700m
    {
        type            zeroGradient;
    }
    "outlet_.*"
    {
        type            inletOutlet;
        inletValue      $internalField;
        value           $internalField;
    }
    "inlet_.*"
    {
        type            atmBoundaryLayerInletOmega;
        #include        "include/ABLConditions"
        value           $internalField;
    }
    "side.*"
    {
        type            zeroGradient;
    }
    
    top
    {
        type            zeroGradient;
    }
    "bottom.*"
    {
        type            omegaWallFunction;
        value           $internalField;
    }
}


// ************************************************************************* //
