/*--------------------------------*- C++ -*----------------------------------*\
  =========                 |
  \\      /  F ield         | OpenFOAM: The Open Source CFD Toolbox
   \\    /   O peration     | Website:  https://openfoam.org
    \\  /    A nd           | Version:  8
     \\/     M anipulation  |
\*---------------------------------------------------------------------------*/
/*   Windows 32 and 64 bit porting by blueCAPE: http://www.bluecape.com.pt   *\
|  Based on Windows porting (2.0.x v4) by Symscape: http://www.symscape.com   |
\*---------------------------------------------------------------------------*/
FoamFile
{
    version     2.0;
    format      ascii;
    class       volScalarField;
    location    "0";
    object      p;
}
// * * * * * * * * * * * * * * * * * * * * * * * * * * * * * * * * * * * * * //

dimensions      [0 2 -2 0 0 0 0];

internalField   uniform 0;

boundaryField
{
    buildings
    {
        type            zeroGradient;
    }
    upstream1700m
    {
        type            zeroGradient;
    }
    "outlet_.*"
    {
        type            totalPressure;
        rho             rho;
        psi             none;
        gamma           1.4;
        p0              uniform 0;
        value           uniform 0;
    }
    "inlet_.*"
    {
        type            zeroGradient;
    }
    "side.*"
    {
        type            zeroGradient;
    }
    
    top
    {
        type            zeroGradient;
    }
    "bottom.*"
    {
        type            zeroGradient;
    }
}


// ************************************************************************* //
