/*--------------------------------*- C++ -*----------------------------------*\
  =========                 |
  \\      /  F ield         | OpenFOAM: The Open Source CFD Toolbox
   \\    /   O peration     | Website:  https://openfoam.org
    \\  /    A nd           | Version:  8
     \\/     M anipulation  |
\*---------------------------------------------------------------------------*/
/*   Windows 32 and 64 bit porting by blueCAPE: http://www.bluecape.com.pt   *\
|  Based on Windows porting (2.0.x v4) by Symscape: http://www.symscape.com   |
\*---------------------------------------------------------------------------*/
FoamFile
{
    version     2.0;
    format      ascii;
    class       volVectorField;
    location    "0";
    object      U;
}
// * * * * * * * * * * * * * * * * * * * * * * * * * * * * * * * * * * * * * //

dimensions      [0 1 -1 0 0 0 0];


#include        "include/initialConditions"

internalField   uniform (0 0 0);

boundaryField
{
    buildings
    {
        type            noSlip;
    }
    upstream1700m
    {
        type            noSlip;
    }
    "outlet_.*"
    {
//        type            pressureInletOutletVelocity;
//        value           uniform (0 0 0);
		type            inletOutlet;
        inletValue      $internalField;
        value           $internalField;

    }
    "inlet_.*"
    {
        type            atmBoundaryLayerInletVelocity;
        #include        "include/ABLConditions"
    }
    "side.*"
    {
        type            zeroGradient;
    }
    
    top
    {
        type            zeroGradient;
    }
    "bottom.*"
    {
        type            noSlip;
    }
}


// ************************************************************************* //
